                                  MODFLOW-2005     
      U.S. GEOLOGICAL SURVEY MODULAR FINITE-DIFFERENCE GROUND-WATER FLOW MODEL
                            VERSION 1.12.00 2/3/2017

 LIST FILE: BoxModel_flopy.list
                         UNIT    2

 OPENING BoxModel_flopy.dis
 FILE TYPE:DIS   UNIT   11   STATUS:OLD    
 FORMAT:FORMATTED              ACCESS:SEQUENTIAL          

 OPENING BoxModel_flopy.bas
 FILE TYPE:BAS6   UNIT   13   STATUS:OLD    
 FORMAT:FORMATTED              ACCESS:SEQUENTIAL          

 OPENING BoxModel_flopy.bcf
 FILE TYPE:BCF6   UNIT   15   STATUS:OLD    
 FORMAT:FORMATTED              ACCESS:SEQUENTIAL          

 OPENING BoxModel_flopy.oc
 FILE TYPE:OC   UNIT   14   STATUS:OLD    
 FORMAT:FORMATTED              ACCESS:SEQUENTIAL          

 OPENING BoxModel_flopy.pcg
 FILE TYPE:PCG   UNIT   27   STATUS:OLD    
 FORMAT:FORMATTED              ACCESS:SEQUENTIAL          

 OPENING BoxModel_flopy.wel
 FILE TYPE:WEL   UNIT   20   STATUS:OLD    
 FORMAT:FORMATTED              ACCESS:SEQUENTIAL          

 OPENING BoxModel_flopy.cbc
 FILE TYPE:DATA(BINARY)   UNIT   53   STATUS:REPLACE
 FORMAT:BINARY                 ACCESS:SEQUENTIAL          

 OPENING BoxModel_flopy.hds
 FILE TYPE:DATA(BINARY)   UNIT   51   STATUS:REPLACE
 FORMAT:BINARY                 ACCESS:SEQUENTIAL          

 BAS -- BASIC PACKAGE, VERSION 7, 5/2/2005 INPUT READ FROM UNIT   13
 
 MODFLOW was compiled using mixed precision
 Precision of REAL variables:           6
 Precision of DOUBLE PRECISION variables:          15

 DISCRETIZATION INPUT DATA READ FROM UNIT   11
 # DIS package for  MODFLOW-2005, generated by Flopy.
    1 LAYERS        25 ROWS        25 COLUMNS
    1 STRESS PERIOD(S) IN SIMULATION
 MODEL TIME UNIT IS DAYS
 MODEL LENGTH UNIT IS METERS
  Confining bed flag for each layer:
   0

                     DELR =   100.000    

                     DELC =   100.000    

 TOP ELEVATION OF LAYER 1 =   10.0000    

   MODEL LAYER BOTTOM EL. =   0.00000     FOR LAYER   1


 STRESS PERIOD     LENGTH       TIME STEPS     MULTIPLIER FOR DELT    SS FLAG
 ----------------------------------------------------------------------------
        1         1.000000          1                    1.000         SS

 STEADY-STATE SIMULATION



 
 # BAS6 package for  MODFLOW-2005, generated by Flopy.                           
 THE FREE FORMAT OPTION HAS BEEN SELECTED



                     BOUNDARY ARRAY FOR LAYER   1
 READING ON UNIT   13 WITH FORMAT: (25I10)             

 AQUIFER HEAD WILL BE SET TO  -999.99     AT ALL NO-FLOW NODES (IBOUND=0).



                       INITIAL HEAD FOR LAYER   1
 READING ON UNIT   13 WITH FORMAT: (25E15.6)           
 # OC package for  MODFLOW-2005, generated by Flopy.

 OUTPUT CONTROL IS SPECIFIED ONLY AT TIME STEPS FOR WHICH OUTPUT IS DESIRED
 COMPACT CELL-BY-CELL BUDGET FILES WILL BE WRITTEN
 AUXILIARY DATA WILL BE SAVED IN CELL-BY-CELL BUDGET FILES
 HEAD PRINT FORMAT CODE IS   0    DRAWDOWN PRINT FORMAT CODE IS   0
 HEADS WILL BE SAVED ON UNIT   51    DRAWDOWNS WILL BE SAVED ON UNIT    0

 BCF -- BLOCK-CENTERED FLOW PACKAGE, VERSION 7, 5/2/2005
         INPUT READ FROM UNIT 15
 STEADY-STATE SIMULATION
 CELL-BY-CELL FLOWS WILL BE SAVED ON UNIT 53
 HEAD AT CELLS THAT CONVERT TO DRY= -0.10000E+31
 WETTING CAPABILITY IS NOT ACTIVE
      LAYER  LAYER-TYPE CODE     INTERBLOCK T
      --------------------------------------------
         1            3          0 -- HARMONIC    

 COLUMN TO ROW ANISOTROPY =   1.00000    



              HYD. COND. ALONG ROWS FOR LAYER   1
 READING ON UNIT   15 WITH FORMAT: (25E15.6)           

 WEL -- WELL PACKAGE, VERSION 7, 5/2/2005 INPUT READ FROM UNIT   20
 # WEL package for  MODFLOW-2005, generated by Flopy.
 No named parameters
 MAXIMUM OF     25 ACTIVE WELLS AT ONE TIME


     0 Well parameters

 PCG -- CONJUGATE-GRADIENT SOLUTION PACKAGE, VERSION 7, 5/2/2005
 # PCG package for  MODFLOW-2005, generated by Flopy.
 MAXIMUM OF     50 CALLS OF SOLUTION ROUTINE
 MAXIMUM OF     30 INTERNAL ITERATIONS PER CALL TO SOLUTION ROUTINE
 MATRIX PRECONDITIONING TYPE :    1



                                    SOLUTION BY THE CONJUGATE-GRADIENT METHOD
                                   -------------------------------------------
                    MAXIMUM NUMBER OF CALLS TO PCG ROUTINE =       50
                        MAXIMUM ITERATIONS PER CALL TO PCG =       30
                               MATRIX PRECONDITIONING TYPE =        1
        RELAXATION FACTOR (ONLY USED WITH PRECOND. TYPE 1) =    0.10000E+01
 PARAMETER OF POLYNOMIAL PRECOND. = 2 (2) OR IS CALCULATED :        0
                         HEAD CHANGE CRITERION FOR CLOSURE =    0.10000E-04
                     RESIDUAL CHANGE CRITERION FOR CLOSURE =    0.10000E-04
            PCG HEAD AND RESIDUAL CHANGE PRINTOUT INTERVAL =      999
     PRINTING FROM SOLVER IS LIMITED(1) OR SUPPRESSED (>1) =        3
                            STEADY-STATE DAMPING PARAMETER =    0.10000E+01
                               TRANSIENT DAMPING PARAMETER =    0.10000E+01
1
                            STRESS PERIOD NO.    1, LENGTH =   1.000000    
                            -----------------------------------------------

                              NUMBER OF TIME STEPS =     1

                               MULTIPLIER FOR DELT =     1.000

                            INITIAL TIME STEP SIZE =   1.000000    

 WELL NO.  LAYER   ROW   COL   STRESS RATE         
 --------------------------------------------------
      1      1      1     25     -0.2500    
      2      1      2     25     -0.2500    
      3      1      3     25     -0.2500    
      4      1      4     25     -0.2500    
      5      1      5     25     -0.2500    
      6      1      6     25     -0.2500    
      7      1      7     25     -0.2500    
      8      1      8     25     -0.2500    
      9      1      9     25     -0.2500    
     10      1     10     25     -0.2500    
     11      1     11     25     -0.2500    
     12      1     12     25     -0.2500    
     13      1     13     25     -0.2500    
     14      1     14     25     -0.2500    
     15      1     15     25     -0.2500    
     16      1     16     25     -0.2500    
     17      1     17     25     -0.2500    
     18      1     18     25     -0.2500    
     19      1     19     25     -0.2500    
     20      1     20     25     -0.2500    
     21      1     21     25     -0.2500    
     22      1     22     25     -0.2500    
     23      1     23     25     -0.2500    
     24      1     24     25     -0.2500    
     25      1     25     25     -0.2500    

     25 WELLS
 
 SOLVING FOR HEAD 

 OUTPUT CONTROL FOR STRESS PERIOD    1   TIME STEP    1
    PRINT HEAD FOR ALL LAYERS
    PRINT BUDGET
    SAVE HEAD FOR ALL LAYERS
    SAVE BUDGET
 UBDSV2 SAVING "   CONSTANT HEAD" ON UNIT  53 AT TIME STEP  1, STRESS PERIOD   1
 UBDSV1 SAVING "FLOW RIGHT FACE " ON UNIT  53 AT TIME STEP  1, STRESS PERIOD   1
 UBDSV1 SAVING "FLOW FRONT FACE " ON UNIT  53 AT TIME STEP  1, STRESS PERIOD   1
1
              HEAD IN LAYER   1 AT END OF TIME STEP   1 IN STRESS PERIOD    1
  ---------------------------------------------------------------------------

            1           2           3           4           5           6           7           8           9          10
           11          12          13          14          15          16          17          18          19          20
           21          22          23          24          25
 ........................................................................................................................
   1    20.00       19.60       19.20       18.80       18.39       17.98       17.57       17.15       16.73       16.30    
        15.87       15.44       15.00       14.56       14.13       13.70       13.27       12.85       12.43       12.02    
        11.61       11.20       10.80       10.40       10.00    
   2    20.00       19.60       19.20       18.80       18.39       17.98       17.57       17.15       16.73       16.30    
        15.87       15.44       15.00       14.56       14.13       13.70       13.27       12.85       12.43       12.02    
        11.61       11.20       10.80       10.40       10.00    
   3    20.00       19.60       19.20       18.80       18.40       17.99       17.58       17.16       16.74       16.31    
        15.88       15.44       15.00       14.56       14.12       13.69       13.26       12.84       12.42       12.01    
        11.60       11.20       10.80       10.40       10.00    
   4    20.00       19.61       19.21       18.81       18.41       18.01       17.60       17.18       16.76       16.32    
        15.89       15.44       15.00       14.56       14.11       13.68       13.24       12.82       12.40       11.99    
        11.59       11.19       10.79       10.39       10.00    
   5    20.00       19.61       19.22       18.82       18.43       18.02       17.62       17.20       16.78       16.34    
        15.90       15.45       15.00       14.55       14.10       13.66       13.22       12.80       12.38       11.98    
        11.57       11.18       10.78       10.39       10.00    
   6    20.00       19.61       19.23       18.84       18.45       18.05       17.65       17.23       16.81       16.37    
        15.92       15.46       15.00       14.54       14.08       13.63       13.19       12.77       12.35       11.95    
        11.55       11.16       10.77       10.39       10.00    
   7    20.00       19.62       19.24       18.85       18.47       18.08       17.68       17.28       16.86       16.41    
        15.95       15.48       15.00       14.52       14.05       13.59       13.14       12.72       12.32       11.92    
        11.53       11.15       10.76       10.38       10.00    
   8    20.00       19.63       19.25       18.87       18.50       18.12       17.73       17.34       16.92       16.47    
        15.99       15.50       15.00       14.50       14.01       13.53       13.08       12.66       12.27       11.88    
        11.50       11.13       10.75       10.37       10.00    
   9    20.00       19.63       19.26       18.90       18.53       18.16       17.79       17.41       17.01       16.57    
        16.05       15.52       15.00       14.48       13.95       13.43       12.99       12.59       12.21       11.84    
        11.47       11.10       10.74       10.37       10.00    
  10    20.00       19.64       19.28       18.92       18.56       18.21       17.86       17.51       17.15       16.74    
        16.12       15.55       15.00       14.45       13.88       13.26       12.85       12.49       12.14       11.79    
        11.44       11.08       10.72       10.36       10.00    
  11    20.00       19.64       19.29       18.93       18.59       18.25       17.93       17.62       17.34       17.13    
        16.49       15.68       15.00       14.32       13.51       12.87       12.66       12.38       12.07       11.75    
        11.41       11.07       10.71       10.36       10.00    
  12    20.00       19.65       19.29       18.95       18.61       18.28       17.97       17.70       17.47       17.32    
        16.76       15.83       15.00       14.17       13.24       12.68       12.53       12.30       12.03       11.72    
        11.39       11.05       10.71       10.35       10.00    
  13    20.00       19.65       19.30       18.95       18.61       18.29       17.99       17.72       17.51       17.38    
        16.83       15.87       15.00       14.13       13.17       12.62       12.49       12.28       12.01       11.71    
        11.39       11.05       10.70       10.35       10.00    
  14    20.00       19.65       19.29       18.95       18.61       18.28       17.97       17.70       17.47       17.32    
        16.76       15.83       15.00       14.17       13.24       12.68       12.53       12.30       12.03       11.72    
        11.39       11.05       10.71       10.35       10.00    
  15    20.00       19.64       19.29       18.93       18.59       18.25       17.93       17.62       17.34       17.13    
        16.49       15.68       15.00       14.32       13.51       12.87       12.66       12.38       12.07       11.75    
        11.41       11.07       10.71       10.36       10.00    
  16    20.00       19.64       19.28       18.92       18.56       18.21       17.86       17.51       17.15       16.74    
        16.12       15.55       15.00       14.45       13.88       13.26       12.85       12.49       12.14       11.79    
        11.44       11.08       10.72       10.36       10.00    
  17    20.00       19.63       19.26       18.90       18.53       18.16       17.79       17.41       17.01       16.57    
        16.05       15.52       15.00       14.48       13.95       13.43       12.99       12.59       12.21       11.84    
        11.47       11.10       10.74       10.37       10.00    
  18    20.00       19.63       19.25       18.87       18.50       18.12       17.73       17.34       16.92       16.47    
        15.99       15.50       15.00       14.50       14.01       13.53       13.08       12.66       12.27       11.88    
        11.50       11.13       10.75       10.37       10.00    
  19    20.00       19.62       19.24       18.85       18.47       18.08       17.68       17.28       16.86       16.41    
        15.95       15.48       15.00       14.52       14.05       13.59       13.14       12.72       12.32       11.92    
        11.53       11.15       10.76       10.38       10.00    
  20    20.00       19.61       19.23       18.84       18.45       18.05       17.65       17.23       16.81       16.37    
        15.92       15.46       15.00       14.54       14.08       13.63       13.19       12.77       12.35       11.95    
        11.55       11.16       10.77       10.39       10.00    
  21    20.00       19.61       19.22       18.82       18.43       18.02       17.62       17.20       16.78       16.34    
        15.90       15.45       15.00       14.55       14.10       13.66       13.22       12.80       12.38       11.98    
        11.57       11.18       10.78       10.39       10.00    
  22    20.00       19.61       19.21       18.81       18.41       18.01       17.60       17.18       16.76       16.32    
        15.89       15.44       15.00       14.56       14.11       13.68       13.24       12.82       12.40       11.99    
        11.59       11.19       10.79       10.39       10.00    
  23    20.00       19.60       19.20       18.80       18.40       17.99       17.58       17.16       16.74       16.31    
        15.88       15.44       15.00       14.56       14.12       13.69       13.26       12.84       12.42       12.01    
        11.60       11.20       10.80       10.40       10.00    
  24    20.00       19.60       19.20       18.80       18.39       17.98       17.57       17.15       16.73       16.30    
        15.87       15.44       15.00       14.56       14.13       13.70       13.27       12.85       12.43       12.02    
        11.61       11.20       10.80       10.40       10.00    
  25    20.00       19.60       19.20       18.80       18.39       17.98       17.57       17.15       16.73       16.30    
        15.87       15.44       15.00       14.56       14.13       13.70       13.27       12.85       12.43       12.02    
        11.61       11.20       10.80       10.40       10.00    

 HEAD WILL BE SAVED ON UNIT   51 AT END OF TIME STEP    1, STRESS PERIOD    1
1
  VOLUMETRIC BUDGET FOR ENTIRE MODEL AT END OF TIME STEP    1, STRESS PERIOD   1
  ------------------------------------------------------------------------------

     CUMULATIVE VOLUMES      L**3       RATES FOR THIS TIME STEP      L**3/T
     ------------------                 ------------------------

           IN:                                      IN:
           ---                                      ---
             STORAGE =           0.0000               STORAGE =           0.0000
       CONSTANT HEAD =          94.8705         CONSTANT HEAD =          94.8705
               WELLS =           0.0000                 WELLS =           0.0000

            TOTAL IN =          94.8705              TOTAL IN =          94.8705

          OUT:                                     OUT:
          ----                                     ----
             STORAGE =           0.0000               STORAGE =           0.0000
       CONSTANT HEAD =          94.8705         CONSTANT HEAD =          94.8705
               WELLS =           0.0000                 WELLS =           0.0000

           TOTAL OUT =          94.8705             TOTAL OUT =          94.8705

            IN - OUT =      -7.6294E-06              IN - OUT =      -7.6294E-06

 PERCENT DISCREPANCY =          -0.00     PERCENT DISCREPANCY =          -0.00






         TIME SUMMARY AT END OF TIME STEP    1 IN STRESS PERIOD    1
                    SECONDS     MINUTES      HOURS       DAYS        YEARS
                    -----------------------------------------------------------
   TIME STEP LENGTH  86400.      1440.0      24.000      1.0000     2.73785E-03
 STRESS PERIOD TIME  86400.      1440.0      24.000      1.0000     2.73785E-03
         TOTAL TIME  86400.      1440.0      24.000      1.0000     2.73785E-03
1

 Run end date and time (yyyy/mm/dd hh:mm:ss): 2021/02/01 21:55:06
 Elapsed run time:  0.038 Seconds

